#
# CO2 vibrational splitting reaction set
# 25 CO2 levels
# 63 CO levels
# 4 O2 levels
# INPUT DATA FILE
# ZDPLASKIN
#
#

ELEMENTS
E C O
END

SPECIES
# ------------------------------------------------------
# CO2 species 
# ------------------------------------------------------
#  CO2(Va) = (010)
#  CO2(Vb) = (100), (020)
#  CO2(Vc) = (110), (030)
#  CO2(Vd) = (n00), (0n0) n=sum 4-8
#  CO2(Vn) = (00n), n=1...21
#  CO2(E1) = (1Πg)
#  CO2(E2) = (1Δu)
#
CO2 
CO2(Va) CO2(Vb) CO2(Vc) CO2(Vd)
CO2(V1) CO2(V2) CO2(V3) CO2(V4) CO2(V5) CO2(V6) CO2(V7) CO2(V8) CO2(V9) CO2(V10) CO2(V11) CO2(V12) CO2(V13) CO2(V14) CO2(V15) CO2(V16) CO2(V17) CO2(V18) CO2(V19) CO2(V20) CO2(V21)
CO2(E1) CO2(E2)
CO2^+ 
# ------------------------------------------------------
# CO species 
# ------------------------------------------------------
# CO(E1) CO(A3Π)
# CO(E2) CO(A1Π)
# CO(E3) CO(A3Σ),CO(D3Δ), CO(E3Σ), CO(B3Σ)
# CO(E4) CO(C1Σ),CO(E1Π), CO(B1Σ), CO(I1Σ),CO(D1Δ)
#
CO CO(V1) CO(V2) CO(V3) CO(V4) CO(V5) CO(V6) CO(V7) CO(V8) CO(V9) CO(V10) CO(V11) CO(V12) CO(V13) CO(V14) CO(V15) CO(V16) CO(V17) CO(V18) CO(V19) CO(V20)
CO(E1) CO(E2) CO(E3) CO(E4)
CO^+ CO3^- CO4^- CO4^+
# ------------------------------------------------------
# O3,O2 and O species 
# ------------------------------------------------------
# O2e1 O2(a1Δ) and O2(b1Σ)
# O2e2 O2(B3Σ) and higher triplets
#
O3
O2 O2(V1) O2(V2) O2(V3) O2(V4) O2(E1) O2(E2)
O
O2^+ O2^- O^+ O^- O3^- O4^- O4^+
# ------------------------------------------------------
# electrons and others
# ------------------------------------------------------
C2O C2O2^+ C2O3^+ C2O4^+
C2 C2^+
C C^+
E
END

BOLSIG
SET DBFILE CO2SPLIT2C_BOLSIGDB.DAT
CO2 CO2(Va) CO2(Vb) CO2(Vc) CO2(Vd)
CO2(V1) CO2(V2) CO2(V3) CO2(V4) CO2(V5) CO2(V6) CO2(V7) CO2(V8) CO2(V9) CO2(V10)
CO2(V11) CO2(V12) CO2(V13) CO2(V14) CO2(V15) CO2(V16) CO2(V17) CO2(V18) CO2(V19) CO2(V20) CO2(V21)
CO2(E1) CO2(E2)
CO CO(V1) CO(V2) CO(V3) CO(V4) CO(V5) CO(V6) CO(V7) CO(V8) CO(V9) CO(V10)
CO(E1) CO(E2) CO(E3) CO(E4)
O2 O2(V1) O2(V2) O2(V3) O2(V4) O2(E1) O2(E2)
O3 O C C2
END


REACTIONS

$ double precision::rvt1,rvt2,rvt3,rvts
$ rvt1 = 0.43*exp(-407.0*Tgas**(-0.33333)+824.0*Tgas**(-0.66667))
$ rvt2 = 0.86*exp(-404.0*Tgas**(-0.33333)+1096.0*Tgas**(-0.66667))
$ rvt3 = 1.43e-5*exp(-252.0*Tgas**(-0.33333)+685.0*Tgas**(-0.66667))
$ rvts = 7.14e-8*exp(-177.0*Tgas**(-0.33333)+451.0*Tgas**(-0.66667))



# ------------------------------------------------------
# electron impact reactions: vibrational excitation
# ------------------------------------------------------
# symmetric levels
E + CO2 => E + @B     ! BOLSIG+ CO2 -> @B
  @B = CO2(Va) CO2(Vb) CO2(Vc) CO2(Vd)

# asymmetric levels from CO2
E + CO2 => E + @B     ! BOLSIG+ CO2 -> @B
 @B = CO2(V1) CO2(V2) CO2(V3) CO2(V4) CO2(V5) CO2(V6) CO2(V7) CO2(V8) CO2(V9) CO2(V10) CO2(V11) CO2(V12) CO2(V13) CO2(V14) CO2(V15) CO2(V16) CO2(V17) CO2(V18) CO2(V19) CO2(V20) CO2(V21)

# asymmetric levels from CO2(Va)
E + CO2(Va) => E + @B + 0.0828_eV     ! BOLSIG+ CO2(Va) -> @B
 @B = CO2(V1) CO2(V2) CO2(V3) CO2(V4) CO2(V5) CO2(V6) CO2(V7) CO2(V8) CO2(V9) CO2(V10) CO2(V11) CO2(V12) CO2(V13) CO2(V14) CO2(V15) CO2(V16) CO2(V17) CO2(V18) CO2(V19) CO2(V20) CO2(V21)

E + CO2(Vb) => E + @B + 0.1657_eV    ! BOLSIG+ CO2(Vb) -> @B
 @B = CO2(V1) CO2(V2) CO2(V3) CO2(V4) CO2(V5) CO2(V6) CO2(V7) CO2(V8) CO2(V9) CO2(V10) CO2(V11) CO2(V12) CO2(V13) CO2(V14) CO2(V15) CO2(V16) CO2(V17) CO2(V18) CO2(V19) CO2(V20) CO2(V21)

E + CO2(Vc) => E + @B + 0.2486_eV    ! BOLSIG+ CO2(Vc) -> @B
 @B = CO2(V1) CO2(V2) CO2(V3) CO2(V4) CO2(V5) CO2(V6) CO2(V7) CO2(V8) CO2(V9) CO2(V10) CO2(V11) CO2(V12) CO2(V13) CO2(V14) CO2(V15) CO2(V16) CO2(V17) CO2(V18) CO2(V19) CO2(V20) CO2(V21)

E + CO2(Vd) => E + @B + 0.3314_eV    ! BOLSIG+ CO2(Vd) -> @B
 @B = CO2(V1) CO2(V2) CO2(V3) CO2(V4) CO2(V5) CO2(V6) CO2(V7) CO2(V8) CO2(V9) CO2(V10) CO2(V11) CO2(V12) CO2(V13) CO2(V14) CO2(V15) CO2(V16) CO2(V17) CO2(V18) CO2(V19) CO2(V20) CO2(V21)

# asymmetric levels from CO2(V1)
E + CO2(V1) => E + @B     ! BOLSIG+ CO2(V1) -> @B
 @B = CO2(V2) CO2(V3) CO2(V4) CO2(V5) CO2(V6) CO2(V7) CO2(V8) CO2(V9) CO2(V10) CO2(V11) CO2(V12) CO2(V13) CO2(V14) CO2(V15) CO2(V16) CO2(V17) CO2(V18) CO2(V19) CO2(V20) CO2(V21)

# asymmetric levels from CO2(V2)
E + CO2(V2) => E + @B     ! BOLSIG+ CO2(V2) -> @B
 @B = CO2(V3) CO2(V4) CO2(V5) CO2(V6) CO2(V7) CO2(V8) CO2(V9) CO2(V10) CO2(V11) CO2(V12) CO2(V13) CO2(V14) CO2(V15) CO2(V16) CO2(V17) CO2(V18) CO2(V19) CO2(V20) CO2(V21)

# asymmetric levels from CO2(V3)
E + CO2(V3) => E + @B     ! BOLSIG+ CO2(V3) -> @B
 @B = CO2(V4) CO2(V5) CO2(V6) CO2(V7) CO2(V8) CO2(V9) CO2(V10) CO2(V11) CO2(V12) CO2(V13) CO2(V14) CO2(V15) CO2(V16) CO2(V17) CO2(V18) CO2(V19) CO2(V20) CO2(V21)


# asymmetric levels from CO2(V4)
E + CO2(V4) => E + @B     ! BOLSIG+ CO2(V4) -> @B
 @B = CO2(V5) CO2(V6) CO2(V7) CO2(V8) CO2(V9) CO2(V10) CO2(V11) CO2(V12) CO2(V13) CO2(V14) CO2(V15) CO2(V16) CO2(V17) CO2(V18) CO2(V19) CO2(V20) CO2(V21)


# asymmetric levels from CO2(V5)
E + CO2(V5) => E + @B     ! BOLSIG+ CO2(V5) -> @B
 @B = CO2(V6) CO2(V7) CO2(V8) CO2(V9) CO2(V10) CO2(V11) CO2(V12) CO2(V13) CO2(V14) CO2(V15) CO2(V16) CO2(V17) CO2(V18) CO2(V19) CO2(V20) CO2(V21)


# CO molecule
E + CO => E + @B       ! BOLSIG+ CO -> @B
  @B = CO(V1) CO(V2) CO(V3) CO(V4) CO(V5) CO(V6) CO(V7) CO(V8) CO(V9) CO(V10)

E + CO(V1) => E + @B       ! BOLSIG+ CO(V1) -> @B
  @B = CO(V2) CO(V3) CO(V4) CO(V5) CO(V6) CO(V7) CO(V8) CO(V9) CO(V10) CO(V11)

E + CO(V2) => E + @B       ! BOLSIG+ CO(V2) -> @B
  @B = CO(V3) CO(V4) CO(V5) CO(V6) CO(V7) CO(V8) CO(V9) CO(V10) CO(V11) CO(V12)

E + CO(V3) => E + @B       ! BOLSIG+ CO(V3) -> @B
  @B = CO(V4) CO(V5) CO(V6) CO(V7) CO(V8) CO(V9) CO(V10) CO(V11) CO(V12) CO(V13)

E + CO(V4) => E + @B       ! BOLSIG+ CO(V4) -> @B
  @B = CO(V5) CO(V6) CO(V7) CO(V8) CO(V9) CO(V10) CO(V11) CO(V12) CO(V13) CO(V14)

E + CO(V5) => E + @B       ! BOLSIG+ CO(V5) -> @B
  @B = CO(V6) CO(V7) CO(V8) CO(V9) CO(V10) CO(V11) CO(V12) CO(V13) CO(V14) CO(V15)


# O2 molecule
E + O2 => E + @B ! BOLSIG+ O2 -> @R
  @B = O2(V1)    O2(V1) O2(V2)    O2(V2) O2(V3)    O2(V3) O2(V4)    O2(V4)
  @R = O2(V1)res O2(V1) O2(V2)res O2(V2) O2(V3)res O2(V3) O2(V4)res O2(V4)

E + @B => E + O2 ! BOLSIG+ @B -> O2
  @B = O2(V1) O2(V2) O2(V3) O2(V4)

# ------------------------------------------------------
# electron impact reactions: electronic excitation
# ------------------------------------------------------
E + @A => E + CO + O  ! BOLSIG+ @A -> CO + O
  @A = CO2 CO2(Va) CO2(Vb) CO2(Vc) CO2(Vd) CO2(V1) CO2(V2) CO2(V3) CO2(V4) CO2(V5) CO2(V6) CO2(V7) CO2(V8) CO2(V9) CO2(V10) CO2(V11) CO2(V12) CO2(V13) CO2(V14) CO2(V15) CO2(V16) CO2(V17) CO2(V18) CO2(V19) CO2(V20) CO2(V21)

E + @A => E + CO2(E1) ! BOLSIG+ @A -> CO2(E1)
  @A = CO2 CO2(Va) CO2(Vb) CO2(Vc) CO2(Vd) CO2(V1) CO2(V2) CO2(V3) CO2(V4) CO2(V5) CO2(V6) CO2(V7) CO2(V8) CO2(V9) CO2(V10) CO2(V11) CO2(V12) CO2(V13) CO2(V14) CO2(V15) CO2(V16) CO2(V17) CO2(V18) CO2(V19) CO2(V20) CO2(V21)


E + @A => E + CO2(E2) ! BOLSIG+ @A -> CO2(E2)
  @A = CO2 CO2(Va) CO2(Vb) CO2(Vc) CO2(Vd) CO2(V1) CO2(V2) CO2(V3) CO2(V4) CO2(V5) CO2(V6) CO2(V7) CO2(V8) CO2(V9) CO2(V10) CO2(V11) CO2(V12) CO2(V13) CO2(V14) CO2(V15) CO2(V16) CO2(V17) CO2(V18) CO2(V19) CO2(V20) CO2(V21)


E + CO2(E1) => E + CO2 ! BOLSIG+ CO2(E1) -> CO2
E + CO2(E2) => E + CO2 ! BOLSIG+ CO2(E2) -> CO2

E + @A => E + C + O     ! BOLSIG+ @A -> C+O
  @A = CO CO(V1) CO(V2) CO(V3) CO(V4) CO(V5) CO(V6) CO(V7) CO(V8) CO(V9) CO(V10)

E + @A => CO(E1) + E    ! BOLSIG+ @A -> CO(E1)  
  @A = CO CO(V1) CO(V2) CO(V3) CO(V4) CO(V5) CO(V6) CO(V7) CO(V8) CO(V9) CO(V10)

E + @A => CO(E2) + E    ! BOLSIG+ @A -> CO(E2)     
  @A = CO CO(V1) CO(V2) CO(V3) CO(V4) CO(V5) CO(V6) CO(V7) CO(V8) CO(V9) CO(V10)

E + @A => CO(E3) + E    ! BOLSIG+ @A -> CO(E3)     
  @A = CO CO(V1) CO(V2) CO(V3) CO(V4) CO(V5) CO(V6) CO(V7) CO(V8) CO(V9) CO(V10)

E + @A => CO(E4) + E    ! BOLSIG+ @A -> CO(E4)
  @A = CO CO(V1) CO(V2) CO(V3) CO(V4) CO(V5) CO(V6) CO(V7) CO(V8) CO(V9) CO(V10)

E + CO(E1) => CO + E    ! BOLSIG+ CO(E1) -> CO  
E + CO(E2) => CO + E    ! BOLSIG+ CO(E2) -> CO     
E + CO(E3) => CO + E    ! BOLSIG+ CO(E3) -> CO     
E + CO(E4) => CO + E    ! BOLSIG+ CO(E4) -> CO

E + C2 => C + C + E     ! BOLSIG+ C2 -> C + C
E + O2 => O + O + E     ! BOLSIG+ O2 -> O+O 

E + @A => E + O2(E1)    ! BOLSIG+ O2 -> O2(E1)
  @A = O2 O2(V1) O2(V2) O2(V3) O2(V4)
E + @A => E + O2(E2)    ! BOLSIG+ O2 -> O2(E2) 
  @A = O2 O2(V1) O2(V2) O2(V3) O2(V4)
E + O2(E1) => E + O2    ! BOLSIG+ O2(E1) -> O2
E + O2(E2) => E + O2    ! BOLSIG+ O2(E2) -> O2 

E + O3 => O + O2 + E    ! BOLSIG+ O3 -> O2 + O

# ------------------------------------------------------
# electron impact reactions: Ionization
# ------------------------------------------------------
E + @A => E + E + CO2^+      ! BOLSIG+ @A -> CO2^+
  @A = CO2 CO2(Va) CO2(Vb) CO2(Vc) CO2(Vd) CO2(V1) CO2(V2) CO2(V3) CO2(V4) CO2(V5) CO2(V6) CO2(V7) CO2(V8) CO2(V9) CO2(V10) CO2(V11) CO2(V12) CO2(V13) CO2(V14) CO2(V15) CO2(V16) CO2(V17) CO2(V18) CO2(V19) CO2(V20) CO2(V21)

E + @A => E + E + O + CO^+   ! BOLSIG+ @A -> CO^+
  @A = CO2 CO2(Va) CO2(Vb) CO2(Vc) CO2(Vd) CO2(V1) CO2(V2) CO2(V3) CO2(V4) CO2(V5) CO2(V6) CO2(V7) CO2(V8) CO2(V9) CO2(V10) CO2(V11) CO2(V12) CO2(V13) CO2(V14) CO2(V15) CO2(V16) CO2(V17) CO2(V18) CO2(V19) CO2(V20) CO2(V21)

E + @A => E + E + C^+ + O2   ! BOLSIG+ @A -> C^+
  @A = CO2 CO2(Va) CO2(Vb) CO2(Vc) CO2(Vd) CO2(V1) CO2(V2) CO2(V3) CO2(V4) CO2(V5) CO2(V6) CO2(V7) CO2(V8) CO2(V9) CO2(V10) CO2(V11) CO2(V12) CO2(V13) CO2(V14) CO2(V15) CO2(V16) CO2(V17) CO2(V18) CO2(V19) CO2(V20) CO2(V21)

E + @A => E + E + CO + O^+   ! BOLSIG+ @A -> O^+
  @A = CO2 CO2(Va) CO2(Vb) CO2(Vc) CO2(Vd) CO2(V1) CO2(V2) CO2(V3) CO2(V4) CO2(V5) CO2(V6) CO2(V7) CO2(V8) CO2(V9) CO2(V10) CO2(V11) CO2(V12) CO2(V13) CO2(V14) CO2(V15) CO2(V16) CO2(V17) CO2(V18) CO2(V19) CO2(V20) CO2(V21)

E + @A => E + E + CO^+        ! BOLSIG+ @A -> CO^+
  @A = CO CO(V1) CO(V2) CO(V3) CO(V4) CO(V5) CO(V6) CO(V7) CO(V8) CO(V9) CO(V10)
E + @A => E + E + C^+ + O     ! BOLSIG+ @A -> C^+
  @A = CO CO(V1) CO(V2) CO(V3) CO(V4) CO(V5) CO(V6) CO(V7) CO(V8) CO(V9) CO(V10)
E + @A => E + E + C + O^+     ! BOLSIG+ @A -> O^+
  @A = CO CO(V1) CO(V2) CO(V3) CO(V4) CO(V5) CO(V6) CO(V7) CO(V8) CO(V9) CO(V10)

E + C => E + E + C^+          ! BOLSIG+ C -> C^+

E + C2 => E + E + C2^+        ! BOLSIG+ C2 -> C2^+

E + @A => O2^+ + E + E        ! BOLSIG+ O2 -> O2^+
  @A = O2 O2(V1) O2(V2) O2(V3) O2(V4)
E + @A => O + O^+ + E + E     ! BOLSIG+ O2 -> O^+
  @A = O2 O2(V1) O2(V2) O2(V3) O2(V4)

E + O3 => O + O2^+ + E + E    ! BOLSIG+ O3 -> O2^+   
E + O3 => O^+ + O^- + O + E   ! BOLSIG+ O3 -> O^+

E + O => O^+ + E + E          ! BOLSIG+ O -> O^+  

# ------------------------------------------------------
# electron impact reactions: Attachment
# ------------------------------------------------------
E + @A => CO + O^-           ! BOLSIG+ @A -> CO+O^-
  @A = CO2 CO2(Va) CO2(Vb) CO2(Vc) CO2(Vd) 

E + CO => C + O^-             ! BOLSIG+ CO -> O^-

E + O2 + ANY_NEUTRAL => O2^- + ANY_NEUTRAL   ! BOLSIG+ O2 -> O2^- 
E + O2 => O + O^-                            ! BOLSIG+ O2 -> O^-   

E + O3 => O^- + O2            ! BOLSIG+ O3 -> O^-
E + O3 => O + O2^-            ! BOLSIG+ O3 -> O2^- 
E + O3 + ANY_NEUTRAL => O3^- + ANY_NEUTRAL    ! 5.39E-29*Te**(-0.5)

E + O + ANY_NEUTRAL => O^- + ANY_NEUTRAL     ! 1.00E-31 

# ------------------------------------------------------
# heavy particle reactions: neutral - neutral
# ------------------------------------------------------
@A + ANY_NEUTRAL + @H_eV => CO + O + ANY_NEUTRAL   ! 4.39E-7*exp(-max(0.0,6.5e4-@E)/Tgas)
  @A = CO2 CO2(Va) CO2(Vb) CO2(Vc) CO2(V1) CO2(Vd) CO2(V2) CO2(V3) CO2(V4) CO2(V5) CO2(V6) CO2(V7) CO2(V8) CO2(V9) CO2(V10) CO2(V11) CO2(V12) CO2(V13) CO2(V14) CO2(V15) CO2(V16) 
  @E = 0.00e+00 9.60e+02 1.92e+03 2.88e+03 3.38e+03 3.85e+03 6.72e+03 1.00e+04 1.33e+04 1.65e+04 1.97e+04 2.29e+04 2.60e+04 2.91e+04 3.22e+04 3.52e+04 3.82e+04 4.11e+04 4.41e+04 4.69e+04 4.98e+04 
  @H = 5.520 5.437 5.354 5.271 5.229 5.189 4.941 4.655 4.373 4.095 3.819 3.546 3.276 3.010 2.747 2.486 2.229 1.975 1.724 1.476 1.231 

@A + ANY_NEUTRAL + @H_eV => CO + O + ANY_NEUTRAL   ! 4.39E-7*exp(-max(0.0,6.5e4-@E)/Tgas)
  @A = CO2(V17) CO2(V18) CO2(V19) CO2(V20) CO2(V21) 
  @E = 5.26e+04 5.53e+04 5.81e+04 6.08e+04 6.34e+04 
  @H = 0.989 0.750 0.515 0.282 0.053 

@A + O + @H_eV => CO + O2           ! 7.77E-12*exp(-max(0.0,1.66e4-0.5*@E)/Tgas)
  @A = CO2 CO2(Va) CO2(Vb) CO2(Vc) CO2(V1) CO2(Vd) 
  @E = 0.00e+00 9.60e+02 1.92e+03 2.88e+03 3.38e+03 3.85e+03 
  @H = 0.350 0.267 0.184 0.101 0.059 0.019 

@A + O => CO + O2 + @H_eV           ! 7.77E-12*exp(-max(0.0,1.66e4-0.5*@E)/Tgas)
  @A = CO2(V2) CO2(V3) CO2(V4) CO2(V5) CO2(V6) CO2(V7) CO2(V8) CO2(V9) CO2(V10) CO2(V11) CO2(V12) CO2(V13) CO2(V14) CO2(V15) CO2(V16) CO2(V17) CO2(V18) CO2(V19) CO2(V20) CO2(V21) 
  @E = 6.72e+03 1.00e+04 1.33e+04 1.65e+04 1.97e+04 2.29e+04 2.60e+04 2.91e+04 3.22e+04 3.52e+04 3.82e+04 4.11e+04 4.41e+04 4.69e+04 4.98e+04 5.26e+04 5.53e+04 5.81e+04 6.08e+04 6.34e+04 
  @H = 0.229 0.515 0.797 1.075 1.351 1.624 1.894 2.160 2.423 2.684 2.941 3.195 3.446 3.694 3.939 4.181 4.420 4.655 4.888 5.117 

@A + C => 2CO + @H_eV               ! 1E-15
  @A = CO2 CO2(Va) CO2(Vb) CO2(Vc) CO2(V1) CO2(Vd) CO2(V2) CO2(V3) CO2(V4) CO2(V5) CO2(V6) CO2(V7) CO2(V8) CO2(V9) CO2(V10) CO2(V11) CO2(V12) CO2(V13) CO2(V14) CO2(V15) CO2(V16) 
  @H = 5.640 5.723 5.806 5.889 5.931 5.971 6.219 6.505 6.787 7.065 7.341 7.614 7.884 8.150 8.413 8.674 8.931 9.185 9.436 9.684 9.929 

@A + C => 2CO + @H_eV               ! 1E-15
  @A = CO2(V17) CO2(V18) CO2(V19) CO2(V20) CO2(V21) 
  @H = 10.171 10.410 10.645 10.878 11.107 

@A + O + ANY_NEUTRAL => CO2 + ANY_NEUTRAL + @H_eV  ! 8.20E-34*exp(-1510.0/Tgas)
  @A = CO CO(V1) CO(V2) CO(V3) CO(V4) CO(V5) CO(V6) CO(V7) CO(V8) CO(V9) CO(V10) CO(V11) CO(V12) CO(V13) CO(V14) CO(V15) CO(V16) CO(V17) CO(V18) CO(V19) CO(V20) 
  @H = 5.520 5.786 6.048 6.307 6.563 6.816 7.065 7.312 7.555 7.795 8.032 8.265 8.496 8.724 8.948 9.170 9.388 9.604 9.817 10.027 10.233 

# possible addition of all CO levels
@A + CO => CO2 + O + @H_eV          ! 1.23E-12*exp(-max(0.0,1.28e4-0.5*@E)/Tgas)
  @A = O2 O2(V1) O2(V2) O2(V3) O2(V4) 
  @E = 0.00e+00 2.24e+03 4.44e+03 6.62e+03 8.75e+03 
  @H = 0.350 0.543 0.733 0.920 1.104 

@A + CO(V1) => CO2 + O + @H_eV          ! 1.23E-12*exp(-max(0.0,1.28e4-0.5*@E)/Tgas)
  @A = O2 O2(V1) O2(V2) O2(V3) O2(V4) 
  @E = 0.00e+00 2.24e+03 4.44e+03 6.62e+03 8.75e+03 
  @H = 0.616 0.809 0.999 1.186 1.370 

@A + CO(V2) => CO2 + O + @H_eV          ! 1.23E-12*exp(-max(0.0,1.28e4-0.5*@E)/Tgas)
  @A = O2 O2(V1) O2(V2) O2(V3) O2(V4) 
  @E = 0.00e+00 2.24e+03 4.44e+03 6.62e+03 8.75e+03 
  @H = 0.878 1.071 1.261 1.448 1.633 

@A + CO(V3) => CO2 + O + @H_eV          ! 1.23E-12*exp(-max(0.0,1.28e4-0.5*@E)/Tgas)
  @A = O2 O2(V1) O2(V2) O2(V3) O2(V4) 
  @E = 0.00e+00 2.24e+03 4.44e+03 6.62e+03 8.75e+03 
  @H = 1.137 1.330 1.520 1.708 1.892 

@A + CO(V4) => CO2 + O + @H_eV          ! 1.23E-12*exp(-max(0.0,1.28e4-0.5*@E)/Tgas)
  @A = O2 O2(V1) O2(V2) O2(V3) O2(V4) 
  @E = 0.00e+00 2.24e+03 4.44e+03 6.62e+03 8.75e+03 
  @H = 1.393 1.586 1.776 1.963 2.148 

@A + CO(V5) => CO2 + O + @H_eV          ! 1.23E-12*exp(-max(0.0,1.28e4-0.5*@E)/Tgas)
  @A = O2 O2(V1) O2(V2) O2(V3) O2(V4) 
  @E = 0.00e+00 2.24e+03 4.44e+03 6.62e+03 8.75e+03 
  @H = 1.646 1.839 2.029 2.216 2.400 

@A + CO(V6) => CO2 + O + @H_eV          ! 1.23E-12*exp(-max(0.0,1.28e4-0.5*@E)/Tgas)
  @A = O2 O2(V1) O2(V2) O2(V3) O2(V4) 
  @E = 0.00e+00 2.24e+03 4.44e+03 6.62e+03 8.75e+03 
  @H = 1.895 2.088 2.278 2.466 2.650 

@A + CO(V7) => CO2 + O + @H_eV          ! 1.23E-12*exp(-max(0.0,1.28e4-0.5*@E)/Tgas)
  @A = O2 O2(V1) O2(V2) O2(V3) O2(V4) 
  @E = 0.00e+00 2.24e+03 4.44e+03 6.62e+03 8.75e+03 
  @H = 2.142 2.335 2.525 2.712 2.896 

@A + CO(V8) => CO2 + O + @H_eV          ! 1.23E-12*exp(-max(0.0,1.28e4-0.5*@E)/Tgas)
  @A = O2 O2(V1) O2(V2) O2(V3) O2(V4) 
  @E = 0.00e+00 2.24e+03 4.44e+03 6.62e+03 8.75e+03 
  @H = 2.385 2.578 2.768 2.955 3.139 

@A + CO(V9) => CO2 + O + @H_eV          ! 1.23E-12*exp(-max(0.0,1.28e4-0.5*@E)/Tgas)
  @A = O2 O2(V1) O2(V2) O2(V3) O2(V4) 
  @E = 0.00e+00 2.24e+03 4.44e+03 6.62e+03 8.75e+03 
  @H = 2.625 2.818 3.008 3.195 3.379 

@A + CO(V10) => CO2 + O + @H_eV          ! 1.23E-12*exp(-max(0.0,1.28e4-0.5*@E)/Tgas)
  @A = O2 O2(V1) O2(V2) O2(V3) O2(V4) 
  @E = 0.00e+00 2.24e+03 4.44e+03 6.62e+03 8.75e+03 
  @H = 2.862 3.055 3.245 3.432 3.616 

@A + CO(V11) => CO2 + O + @H_eV          ! 1.23E-12*exp(-max(0.0,1.28e4-0.5*@E)/Tgas)
  @A = O2 O2(V1) O2(V2) O2(V3) O2(V4) 
  @E = 0.00e+00 2.24e+03 4.44e+03 6.62e+03 8.75e+03 
  @H = 3.095 3.288 3.478 3.665 3.850 

@A + CO(V12) => CO2 + O + @H_eV          ! 1.23E-12*exp(-max(0.0,1.28e4-0.5*@E)/Tgas)
  @A = O2 O2(V1) O2(V2) O2(V3) O2(V4) 
  @E = 0.00e+00 2.24e+03 4.44e+03 6.62e+03 8.75e+03 
  @H = 3.326 3.519 3.709 3.896 4.080 

@A + CO(V13) => CO2 + O + @H_eV          ! 1.23E-12*exp(-max(0.0,1.28e4-0.5*@E)/Tgas)
  @A = O2 O2(V1) O2(V2) O2(V3) O2(V4) 
  @E = 0.00e+00 2.24e+03 4.44e+03 6.62e+03 8.75e+03 
  @H = 3.554 3.747 3.937 4.124 4.308 

@A + CO(V14) => CO2 + O + @H_eV          ! 1.23E-12*exp(-max(0.0,1.28e4-0.5*@E)/Tgas)
  @A = O2 O2(V1) O2(V2) O2(V3) O2(V4) 
  @E = 0.00e+00 2.24e+03 4.44e+03 6.62e+03 8.75e+03 
  @H = 3.778 3.971 4.161 4.348 4.533 

@A + CO(V15) => CO2 + O + @H_eV          ! 1.23E-12*exp(-max(0.0,1.28e4-0.5*@E)/Tgas)
  @A = O2 O2(V1) O2(V2) O2(V3) O2(V4) 
  @E = 0.00e+00 2.24e+03 4.44e+03 6.62e+03 8.75e+03 
  @H = 4.000 4.193 4.383 4.570 4.754 

@A + CO(V16) => CO2 + O + @H_eV          ! 1.23E-12*exp(-max(0.0,1.28e4-0.5*@E)/Tgas)
  @A = O2 O2(V1) O2(V2) O2(V3) O2(V4) 
  @E = 0.00e+00 2.24e+03 4.44e+03 6.62e+03 8.75e+03 
  @H = 4.218 4.411 4.601 4.789 4.973 

@A + CO(V17) => CO2 + O + @H_eV          ! 1.23E-12*exp(-max(0.0,1.28e4-0.5*@E)/Tgas)
  @A = O2 O2(V1) O2(V2) O2(V3) O2(V4) 
  @E = 0.00e+00 2.24e+03 4.44e+03 6.62e+03 8.75e+03 
  @H = 4.434 4.627 4.817 5.004 5.188 

@A + CO(V18) => CO2 + O + @H_eV          ! 1.23E-12*exp(-max(0.0,1.28e4-0.5*@E)/Tgas)
  @A = O2 O2(V1) O2(V2) O2(V3) O2(V4) 
  @E = 0.00e+00 2.24e+03 4.44e+03 6.62e+03 8.75e+03 
  @H = 4.647 4.840 5.030 5.217 5.401 

@A + CO(V19) => CO2 + O + @H_eV          ! 1.23E-12*exp(-max(0.0,1.28e4-0.5*@E)/Tgas)
  @A = O2 O2(V1) O2(V2) O2(V3) O2(V4) 
  @E = 0.00e+00 2.24e+03 4.44e+03 6.62e+03 8.75e+03 
  @H = 4.857 5.049 5.240 5.427 5.611 

@A + CO(V20) => CO2 + O + @H_eV          ! 1.23E-12*exp(-max(0.0,1.28e4-0.5*@E)/Tgas)
  @A = O2 O2(V1) O2(V2) O2(V3) O2(V4) 
  @E = 0.00e+00 2.24e+03 4.44e+03 6.62e+03 8.75e+03 
  @H = 5.063 5.256 5.446 5.634 5.818 


@A + O3 => CO2 + O2 + @H_eV         ! 4.0E-25
  @A = CO CO(V1) CO(V2) CO(V3) CO(V4) CO(V5) CO(V6) CO(V7) CO(V8) CO(V9) CO(V10) CO(V11) CO(V12) CO(V13) CO(V14) CO(V15) CO(V16) CO(V17) CO(V18) CO(V19) CO(V20) 
  @H = 4.410 4.676 4.938 5.197 5.453 5.706 5.955 6.202 6.445 6.685 6.922 7.155 7.386 7.614 7.838 8.060 8.278 8.494 8.707 8.917 9.123 

@A + C + ANY_NEUTRAL => C2O + ANY_NEUTRAL    ! 6.50E-32
  @A = CO CO(V1) CO(V2) CO(V3) CO(V4) CO(V5) CO(V6) CO(V7) CO(V8) CO(V9) CO(V10) CO(V11) CO(V12) CO(V13) CO(V14) CO(V15) CO(V16) CO(V17) CO(V18) CO(V19) CO(V20) 


@A + ANY_NEUTRAL + @H_eV => C + O + ANY_NEUTRAL     ! 1.52E-4*(Tgas/298)**(-3.1)*exp(-max(0.0,1.29e5-@E)/Tgas)
  @A = CO CO(V1) CO(V2) CO(V3) CO(V4) CO(V5) CO(V6) CO(V7) CO(V8) CO(V9) CO(V10) CO(V11) CO(V12) CO(V13) CO(V14) CO(V15) CO(V16) CO(V17) CO(V18) CO(V19) CO(V20) 
  @E = 0.00e+00 3.08e+03 6.13e+03 9.14e+03 1.21e+04 1.50e+04 1.79e+04 2.08e+04 2.36e+04 2.64e+04 2.91e+04 3.19e+04 3.45e+04 3.72e+04 3.98e+04 4.24e+04 4.49e+04 4.74e+04 4.99e+04 5.23e+04 5.47e+04 
  @H = 11.160 10.894 10.632 10.373 10.117 9.864 9.615 9.368 9.125 8.885 8.648 8.415 8.184 7.956 7.732 7.510 7.292 7.076 6.863 6.653 6.447 

@A + C => CO + O + @H_eV            ! 3.00E-11
  @A = O2 O2(V1) O2(V2) O2(V3) O2(V4) 
  @H = 5.990 6.183 6.373 6.560 6.744 

@A + O + ANY_NEUTRAL => O3 + ANY_NEUTRAL + @H_eV     ! 6.11E-34*((Tgas/300.0)**(-2.60))
  @A = O2 O2(V1) O2(V2) O2(V3) O2(V4) 
  @H = 1.100 1.293 1.483 1.670 1.854 


# --------- reactions of species without vibrational levels ---------------
O + C + ANY_NEUTRAL => CO + ANY_NEUTRAL + 11.6_eV  ! 2.14E-29*((Tgas/300.0)**(-3.08))*exp(-2114.0/Tgas)
O + C2O => CO + CO          ! 5.00E-11 
O2 + C2O => CO2 + CO        ! 3.30E-13 
O + O3 => O2 + O2 + 4.06_eV                        ! 3.10E-14*((Tgas/300.0)**(0.75))*exp(-1575.0/Tgas)
O3 + ANY_NEUTRAL + 1.10_eV => O2 + O + ANY_NEUTRAL ! 4.12E-10*exp(-11430.0/Tgas)
O + O + ANY_NEUTRAL => O2 + ANY_NEUTRAL + 5.17_eV  ! 1.27E-32*((Tgas/300.0)**(-1.00))*exp(-170.0/Tgas)

# ------------------------------------------------------
# heavy particle reactions: ion - neutral
# ------------------------------------------------------
@A + O^+ => O2^+ + CO                            ! 9.40E-10
  @A = CO2 CO2(Va) CO2(Vb) CO2(Vc) CO2(V1) CO2(Vd) CO2(V2) CO2(V3) CO2(V4) CO2(V5) CO2(V6) CO2(V7) CO2(V8) CO2(V9) CO2(V10) CO2(V11) CO2(V12) CO2(V13) CO2(V14) CO2(V15) CO2(V16) 

@A + O^+ => O2^+ + CO                            ! 9.40E-10
  @A = CO2(V17) CO2(V18) CO2(V19) CO2(V20) CO2(V21) 

@A + O^+ => CO2^+ + O                            ! 4.50E-10
  @A = CO2 CO2(Va) CO2(Vb) CO2(Vc) CO2(V1) CO2(Vd) CO2(V2) CO2(V3) CO2(V4) CO2(V5) CO2(V6) CO2(V7) CO2(V8) CO2(V9) CO2(V10) CO2(V11) CO2(V12) CO2(V13) CO2(V14) CO2(V15) CO2(V16) 

@A + O^+ => CO2^+ + O                            ! 4.50E-10
  @A = CO2(V17) CO2(V18) CO2(V19) CO2(V20) CO2(V21) 

@A + C^+ => CO^+ + CO                            ! 1.10E-09
  @A = CO2 CO2(Va) CO2(Vb) CO2(Vc) CO2(V1) CO2(Vd) CO2(V2) CO2(V3) CO2(V4) CO2(V5) CO2(V6) CO2(V7) CO2(V8) CO2(V9) CO2(V10) CO2(V11) CO2(V12) CO2(V13) CO2(V14) CO2(V15) CO2(V16) 

@A + C^+ => CO^+ + CO                            ! 1.10E-09
  @A = CO2(V17) CO2(V18) CO2(V19) CO2(V20) CO2(V21) 

@A + CO^+ => CO2^+ + CO                          ! 1.00E-09 
  @A = CO2 CO2(Va) CO2(Vb) CO2(Vc) CO2(V1) CO2(Vd) CO2(V2) CO2(V3) CO2(V4) CO2(V5) CO2(V6) CO2(V7) CO2(V8) CO2(V9) CO2(V10) CO2(V11) CO2(V12) CO2(V13) CO2(V14) CO2(V15) CO2(V16) 

@A + CO^+ => CO2^+ + CO                          ! 1.00E-09 
  @A = CO2(V17) CO2(V18) CO2(V19) CO2(V20) CO2(V21) 

@A + O^- + ANY_NEUTRAL => CO3^- + ANY_NEUTRAL    ! 9.00E-29 
  @A = CO2 CO2(Va) CO2(Vb) CO2(Vc) CO2(V1) CO2(Vd) CO2(V2) CO2(V3) CO2(V4) CO2(V5) CO2(V6) CO2(V7) CO2(V8) CO2(V9) CO2(V10) CO2(V11) CO2(V12) CO2(V13) CO2(V14) CO2(V15) CO2(V16) 

@A + O^- + ANY_NEUTRAL => CO3^- + ANY_NEUTRAL    ! 9.00E-29 
  @A = CO2(V17) CO2(V18) CO2(V19) CO2(V20) CO2(V21) 

@A + O2^- + ANY_NEUTRAL => CO4^- + ANY_NEUTRAL   ! 1.00E-29 
  @A = CO2 CO2(Va) CO2(Vb) CO2(Vc) CO2(V1) CO2(Vd) CO2(V2) CO2(V3) CO2(V4) CO2(V5) CO2(V6) CO2(V7) CO2(V8) CO2(V9) CO2(V10) CO2(V11) CO2(V12) CO2(V13) CO2(V14) CO2(V15) CO2(V16) 

@A + O2^- + ANY_NEUTRAL => CO4^- + ANY_NEUTRAL   ! 1.00E-29 
  @A = CO2(V17) CO2(V18) CO2(V19) CO2(V20) CO2(V21) 

@A + O3^- => O2 + CO3^-                          ! 5.50E-10 
  @A = CO2 CO2(Va) CO2(Vb) CO2(Vc) CO2(V1) CO2(Vd) CO2(V2) CO2(V3) CO2(V4) CO2(V5) CO2(V6) CO2(V7) CO2(V8) CO2(V9) CO2(V10) CO2(V11) CO2(V12) CO2(V13) CO2(V14) CO2(V15) CO2(V16) 

@A + O3^- => O2 + CO3^-                          ! 5.50E-10 
  @A = CO2(V17) CO2(V18) CO2(V19) CO2(V20) CO2(V21) 

@A + O4^- => CO4^- + O2                          ! 4.80E-10 
  @A = CO2 CO2(Va) CO2(Vb) CO2(Vc) CO2(V1) CO2(Vd) CO2(V2) CO2(V3) CO2(V4) CO2(V5) CO2(V6) CO2(V7) CO2(V8) CO2(V9) CO2(V10) CO2(V11) CO2(V12) CO2(V13) CO2(V14) CO2(V15) CO2(V16) 

@A + O4^- => CO4^- + O2                          ! 4.80E-10 
  @A = CO2(V17) CO2(V18) CO2(V19) CO2(V20) CO2(V21) 

@A + CO2^+ + ANY_NEUTRAL => C2O4^+ + ANY_NEUTRAL ! 3.00E-28
  @A = CO2 CO2(Va) CO2(Vb) CO2(Vc) CO2(V1) CO2(Vd) CO2(V2) CO2(V3) CO2(V4) CO2(V5) CO2(V6) CO2(V7) CO2(V8) CO2(V9) CO2(V10) CO2(V11) CO2(V12) CO2(V13) CO2(V14) CO2(V15) CO2(V16) 

@A + CO2^+ + ANY_NEUTRAL => C2O4^+ + ANY_NEUTRAL ! 3.00E-28
  @A = CO2(V17) CO2(V18) CO2(V19) CO2(V20) CO2(V21) 

@A + O2^+ + ANY_NEUTRAL => CO4^+ + ANY_NEUTRAL   ! 2.30E-29
  @A = CO2 CO2(Va) CO2(Vb) CO2(Vc) CO2(V1) CO2(Vd) CO2(V2) CO2(V3) CO2(V4) CO2(V5) CO2(V6) CO2(V7) CO2(V8) CO2(V9) CO2(V10) CO2(V11) CO2(V12) CO2(V13) CO2(V14) CO2(V15) CO2(V16) 

@A + O2^+ + ANY_NEUTRAL => CO4^+ + ANY_NEUTRAL   ! 2.30E-29
  @A = CO2(V17) CO2(V18) CO2(V19) CO2(V20) CO2(V21) 

@A + O^+ => CO^+ + O                             ! 4.90E-12*((Tgas/300.0)**(0.5))*exp(-4580.0/Tgas)
  @A = CO CO(V1) CO(V2) CO(V3) CO(V4) CO(V5) CO(V6) CO(V7) CO(V8) CO(V9) CO(V10) CO(V11) CO(V12) CO(V13) CO(V14) CO(V15) CO(V16) CO(V17) CO(V18) CO(V19) CO(V20) 

@A + O^- => CO2 + E                              ! 5.50E-10
  @A = CO CO(V1) CO(V2) CO(V3) CO(V4) CO(V5) CO(V6) CO(V7) CO(V8) CO(V9) CO(V10) CO(V11) CO(V12) CO(V13) CO(V14) CO(V15) CO(V16) CO(V17) CO(V18) CO(V19) CO(V20) 


@A + CO3^- => CO2 + CO2 + E                      ! 5.50E-17 
  @A = CO CO(V1) CO(V2) CO(V3) CO(V4) CO(V5) CO(V6) CO(V7) CO(V8) CO(V9) CO(V10) CO(V11) CO(V12) CO(V13) CO(V14) CO(V15) CO(V16) CO(V17) CO(V18) CO(V19) CO(V20) 


@A + C2O3^+ => CO2 + C2O2^+                      ! 1.10E-09
  @A = CO CO(V1) CO(V2) CO(V3) CO(V4) CO(V5) CO(V6) CO(V7) CO(V8) CO(V9) CO(V10) CO(V11) CO(V12) CO(V13) CO(V14) CO(V15) CO(V16) CO(V17) CO(V18) CO(V19) CO(V20) 

@A + C2O4^+ => C2O3^+ + CO2                      ! 9.00E-10 
  @A = CO CO(V1) CO(V2) CO(V3) CO(V4) CO(V5) CO(V6) CO(V7) CO(V8) CO(V9) CO(V10) CO(V11) CO(V12) CO(V13) CO(V14) CO(V15) CO(V16) CO(V17) CO(V18) CO(V19) CO(V20) 

@A + C2O3^+ + ANY_NEUTRAL => C2O2^+ + CO2 + ANY_NEUTRAL ! 2.60E-26 
  @A = CO CO(V1) CO(V2) CO(V3) CO(V4) CO(V5) CO(V6) CO(V7) CO(V8) CO(V9) CO(V10) CO(V11) CO(V12) CO(V13) CO(V14) CO(V15) CO(V16) CO(V17) CO(V18) CO(V19) CO(V20) 

@A + C2O4^+ + ANY_NEUTRAL => C2O3^+ + CO2 + ANY_NEUTRAL ! 4.20E-26 
  @A = CO CO(V1) CO(V2) CO(V3) CO(V4) CO(V5) CO(V6) CO(V7) CO(V8) CO(V9) CO(V10) CO(V11) CO(V12) CO(V13) CO(V14) CO(V15) CO(V16) CO(V17) CO(V18) CO(V19) CO(V20) 

@A + C^+ => CO^+ + C                             ! 5.00E-13 
  @A = CO CO(V1) CO(V2) CO(V3) CO(V4) CO(V5) CO(V6) CO(V7) CO(V8) CO(V9) CO(V10) CO(V11) CO(V12) CO(V13) CO(V14) CO(V15) CO(V16) CO(V17) CO(V18) CO(V19) CO(V20) 

@A + CO2^+ => O2^+ + CO2                         ! 5.30E-11
  @A = O2 O2(V1) O2(V2) O2(V3) O2(V4) 

@A + CO^+ => O2^+ + CO                           ! 1.20E-10
  @A = O2 O2(V1) O2(V2) O2(V3) O2(V4) 

@A + C2O2^+ => CO + CO + O2^+                    ! 5.00E-12
  @A = O2 O2(V1) O2(V2) O2(V3) O2(V4) 

@A + C^+ => CO + O^+                             ! 6.20E-10
  @A = O2 O2(V1) O2(V2) O2(V3) O2(V4) 

@A + C^+ => CO^+ + O                             ! 3.80E-10
  @A = O2 O2(V1) O2(V2) O2(V3) O2(V4) 

@A + O^+ => O2^+ + O                             ! 1.90E-11*((Tgas/300.0)**(-0.50))
  @A = O2 O2(V1) O2(V2) O2(V3) O2(V4) 

@A + O2^+ + ANY_NEUTRAL => O4^+ + ANY_NEUTRAL    ! 2.40E-30
  @A = O2 O2(V1) O2(V2) O2(V3) O2(V4) 

@A + O2^- + ANY_NEUTRAL => O4^- + ANY_NEUTRAL    ! 3.50E-31
  @A = O2 O2(V1) O2(V2) O2(V3) O2(V4) 

@A + O^- => O3 + E                               ! 1.00E-12
  @A = O2 O2(V1) O2(V2) O2(V3) O2(V4) 

@A + O^- + ANY_NEUTRAL => O3^- + ANY_NEUTRAL     ! 3.00E-28*((Tgas/300.0)**(-1.0))
  @A = O2 O2(V1) O2(V2) O2(V3) O2(V4) 

@A + O2^- => @A + O2 + E                         ! 2.18E-18
  @A = O2 O2(V1) O2(V2) O2(V3) O2(V4) 

@A + O3^- => @A + O3 + E                         ! 2.30E-18
  @A = O2 O2(V1) O2(V2) O2(V3) O2(V4) 


# --------- reactions of species without vibrational levels ---------------
CO^+ + C => CO + C^+        ! 1.10E-10 
O2^+ + C => CO^+ + O        ! 5.20E-11 
O2^+ + C => C^+ + O2        ! 5.20E-11 
C2^+ + C => C2 + C^+        ! 1.10E-10  
O + CO2^+ => O2^+ + CO      ! 1.64E-10 
O + CO2^+ => O^+ + CO2      ! 9.62E-11 
O + CO^+ => CO + O^+         ! 1.40E-10 
O + CO3^- => CO2 + O2^-            ! 8.00E-11 
O + CO4^- => CO3^- + O2            ! 1.10E-10 
O + CO4^- => CO2 + O2 + O^-        ! 0.14E-10 
O + CO4^- => CO2 + O3^-            ! 0.14E-10 
O + O^+ + ANY_NEUTRAL => O2^+ + ANY_NEUTRAL     ! 1.00E-29 
O + O^- => O2 + E           ! 2.30E-10
O + O2^- => O2 + O^-        ! 3.30E-10
O + O2^- => O3 + E          ! 3.30E-10 
O + O3^- => O2 + O2 + E     ! 1.00E-13 
O + O3^- => O2^- + O2       ! 2.50E-10
O + O3^- => O3 + O^-        ! 1.00E-13 
O + O4^- => O3^- + O2       ! 4.00E-10 
O + O4^- => O^- + O2 + O2   ! 3.00E-10 
O + O4^+ => O2^+ + O3       ! 3.00E-10 
O3 + CO4^- => CO2 + O3^- + O2       ! 4.00E-18
O3 + O^- => O3^- + O            ! 8.00E-10 
O3 + O^- => O2 + O2 + E         ! 3.00E-10 
O3 + O2^- => O3^- + O2          ! 4.00E-10 
O3 + O3^- => O2 + O2 + O2 + E   ! 3.00E-10 
O3 + O^+ => O2^+ + O2           ! 1.00E-10 
O2^- + ANY_NEUTRAL => O2 + ANY_NEUTRAL + E  ! 2.70E-10*((Tgas/300.0)**(0.50))*exp(-5590.0/Tgas)
O3^- + ANY_NEUTRAL => O3 + ANY_NEUTRAL + E  ! 2.30E-11 
O^- + ANY_NEUTRAL => O + ANY_NEUTRAL + E    ! 4.00E-12 
O4^- + ANY_NEUTRAL => O2^- + O2 + ANY_NEUTRAL   ! 3.08E-12
O4^+ + ANY_NEUTRAL => O2^+ + O2 + ANY_NEUTRAL   ! 1.73E-13 
C2O2^+ + ANY_NEUTRAL => CO^+ + CO + ANY_NEUTRAL   ! 1.00E-12 
C2O4^+ + ANY_NEUTRAL => CO2^+ + CO2 + ANY_NEUTRAL ! 1.00E-14 

# ------------------------------------------------------
# heavy particle reactions: electron - ion
# ------------------------------------------------------
E + CO2^+ => CO + O         ! 2.15E-03*Te**(-0.50)/Tgas 
E + CO2^+ => C + O2         ! 1.66E-05*Te**(-0.40)